37
Mg Porphin
C                 -1.41478807   -1.38673987   -0.27546855
C                  0.10179343   -1.53458053   -0.07889229
C                  0.53408642   -0.37025944    0.45145190
C                 -0.67562941    0.57796327    0.46559768
H                  0.69507620   -2.39648436   -0.30089545
H                  1.52737697   -0.14599081    0.78086417
C                 -0.62370820    1.96362793    0.78635139
H                  0.21323483    2.35384028    1.32735933
C                 -2.29970743   -2.44324831   -0.63702830
H                 -1.91393373   -3.32969289   -1.09683478
C                 -1.64052102    2.84486117    0.32186518
C                 -3.52932141    3.58449372   -0.59511281
C                 -2.59214132    4.79754521   -0.48499553
H                 -2.78843501    5.79301664   -0.82737225
C                 -1.48137242    4.36442701    0.14972837
N                 -2.86612663    2.50908907   -0.12553285
N                 -1.74741954   -0.12018577    0.04126910
H                 -0.64679525    4.95921480    0.45645615
C                 -3.68393396   -2.35600549   -0.31223368
C                 -4.63005393   -3.55629325   -0.15598101
N                 -4.37818634   -1.24301980   -0.00220836
C                 -5.78557755   -3.06857539    0.34505536
H                 -4.41027665   -4.57910031   -0.38223928
C                 -5.63589939   -1.53901637    0.37901842
H                 -6.64304239   -3.63441062    0.64304078
C                 -6.68305631   -0.62113443    0.67405446
H                 -7.56136499   -0.96043354    1.18328735
C                 -6.60122370    0.72696467    0.22471451
C                 -7.80292122    1.66378985    0.02269080
N                 -5.49689043    1.38542695   -0.17958107
C                 -7.32644297    2.77323824   -0.58189005
H                 -8.81986259    1.46790799    0.29231039
C                 -5.79921052    2.61414176   -0.64211669
H                 -7.89795710    3.60669127   -0.93279659
C                 -4.88433877    3.63473378   -1.03220086
H                 -5.22991618    4.47158073   -1.60163868
Mg                -3.62049120    0.63120563   -0.10251958
