52
Cetirizine
C                 -1.31610737    2.63679048   -0.00084644
C                  0.07905007    2.63934168   -0.00004682
C                  0.77437809    3.84836613    0.00070992
C                  0.07451596    5.05559768   -0.00053176
C                 -1.32030606    5.05296923   -0.00181022
C                 -2.01569681    3.84348937   -0.00157112
H                 -1.86412404    1.68346969   -0.00099299
H                  1.87405556    3.85045682    0.00197421
H                  0.62297373    6.00874516    0.00000598
H                 -1.87216801    6.00424292   -0.00279707
H                 -3.11529902    3.84166168   -0.00238130
C                  0.85103942    1.30681443    0.00184158
H                  1.79337581    1.43985720   -0.48724099
C                  0.41505987   -0.48736387    1.68199576
C                  2.57473964    0.77351617    1.72731358
C                  0.69110348   -1.01300628    3.07592768
H                  0.78959033   -1.22526334    0.92463509
H                 -0.69101600   -0.38321987    1.53238838
C                  2.85074861    0.24863316    3.12155937
H                  3.05729485    0.09861578    0.97233225
H                  3.03204876    1.79032016    1.61147100
H                  0.23490280   -2.03043373    3.19085261
H                  0.20695056   -0.33927459    3.83095099
H                  3.95676021    0.14403431    3.27103621
H                  2.47681583    0.98744831    3.87839265
N                  1.08617979    0.85184124    1.45418741
N                  2.17897791   -1.08989652    3.35069584
C                  0.03162829    0.23777883   -0.74470266
C                  0.56867017   -0.39587510   -1.86565767
C                 -1.24736307   -0.09709064   -0.30018981
C                 -0.17344898   -1.36368445   -2.54228606
H                  1.57672684   -0.13109474   -2.21630694
C                 -1.98945087   -1.06588037   -0.97632740
H                 -1.67071899    0.40210131    0.58338598
C                 -1.45278973   -1.69908441   -2.09730218
H                  0.24953934   -1.86273063   -3.42621495
H                 -2.99769071   -1.33000002   -0.62537518
Cl                -2.38893911   -2.92048839   -2.95134941
C                  2.78094574   -2.08721982    2.45410174
H                  2.02278564   -2.75673563    2.10504323
H                  3.23055355   -1.59117358    1.61942159
C                  3.85566305   -2.88236770    3.21851166
H                  3.99860784   -3.83253439    2.74771441
H                  4.77651636   -2.33753632    3.20913280
C                  4.26802920   -4.18276315    5.33113825
H                  3.99105398   -4.28769779    6.35932766
H                  5.29898799   -3.90383432    5.26615610
C                  4.05157947   -5.52181188    4.60196201
O                  4.49897618   -6.59036968    5.09348105
O                  3.33974189   -5.55104438    3.36206979
H                  3.28517852   -6.45557385    3.04513244
O                  3.39930599   -3.09413546    4.67401592
